[TITLE]							
EXAMPLE							
[JUNCTIONS]							
;ID	ELEV	DEMAND						
0	178	0
1	176.5	10.784
2	174.6	18.32				
3	173.7	13.521				
4	173.2	5.882				
5	172.1	4.876				
6	173.8	10.238
7	173.2	14.777
8	173	18.861
9	172.8	13.83
10	172.4	8.324
11	171.8	12.582
12	171.1	8.917
13	170.4	6.485
14	172.5	3.277
15	172.4	3.697
16	170.05	7.918
17	170.9	10.215
18	170.8	4.577
19	169.8	5.337
20	170.05	5.316
21	171.3	5.958
22	171.2	2.868
23	171.1	1.757
24	171.05	12.796
25	170.9	13.332
26	170.8	13.936
27	170.4	9.549
				
							
[RESERVOIRS]							
;ID	HEAD						
100	180						
							
							
							
[PIPES]							
;ID     NODE1	NODE2	LENGTH	DIAMETERROUGHNESSMINOR LOSS	STATUS							
1	100	0	507.97	600	100	0	OPEN
2	0	1	192.79	600	100	0	OPEN
3	1	2	815.08	450	100	0	OPEN
4	1	6	434.58	400	100	0	OPEN
5	2	3	922.78	300	100	0	OPEN
6	2	8	385.12	250	100	0	OPEN
7	3	4	284.49	200	100	0	OPEN
8	3	10	359.61	250	100	0	OPEN
9	4	5	397.18	200	100	0	OPEN
10	5	12	167.85	150	100	0	OPEN
11	6	7	407.43	250	100	0	OPEN
12	6	14	344.43	300	100	0	OPEN
13	7	8	550.2	200	100	0	OPEN
14	7	24	754.8	125	100	0	OPEN
15	8	9	488.28	250	100	0	OPEN
16	8	25	762.03	100	100	0	OPEN
17	9	10	293.08	200	100	0	OPEN
18	9	26	821.36	100	100	0	OPEN
19	10	11	311.87	250	100	0	OPEN
20	11	12	429.48	100	100	0	OPEN
21	11	17	716.64	200	100	0	OPEN
22	12	13	435.97	125	100	0	OPEN
23	13	16	315.48	100	100	0	OPEN
24	14	15	35.34	250	100	0	OPEN
25	15	21	393.25	250	100	0	OPEN
26	16	19	272.81	60	100	0	OPEN
27	17	18	201.2	125	100	0	OPEN
28	17	27	265.96	80	100	0	OPEN
29	18	16	392.25	100	100	0	OPEN
30	20	19	345.65	60	100	0	OPEN
31	21	22	297.3	250	100	0	OPEN
32	22	23	35.09	250	100	0	OPEN
33	23	24	168.53	200	100	0	OPEN
34	24	25	559.56	200	100	0	OPEN
35	25	26	223.34	200	100	0	OPEN
36	26	27	570.3	150	100	0	OPEN
37	27	20	270.33	125	100	0	OPEN
	
							
[COORDINATES]							
;Node	X-Coord	Y-Coord					
100	0	2000
0	491.12	1834.668
1	465.054	1643.65					
2	1280.13	1639.617					
3	2202.89	1621.41					
4	2487.17	1615.622						
5	2859.35	1476.91						
6	328.68	1231.013					
7	736.122	1230.5						
8	1285.81	1254.534	
9	1773.63	1275.87
10	2066.34	1288.67
11	2378.01	1302.27
12	2807.24	1317.36
13	2672.34	902.78
14      221.134	903.8	
15	253.51	889.62
16	2673.34	587.29	
17	2147.38	623.78
18	2342.23	577.67
19	2670.93	314.48
20	2325.28	311.59
21	249.62	496.54
22	546.83	504.31
23	554.89	470.16
24	735.17	475.69
25	1282.65	492.51
26	1505.89	499.36
27	2061.78	371.97

							
[END]							
