[TITLE]
EXAMPLE							

[JUNCTIONS]
;ID Noeud              	Altitude     	Demande Base   	Courbe Modulation
 0               	178         	0           	                	;
 1               	176.5       	10.784      	                	;
 2               	174.6       	18.32       	                	;
 3               	173.7       	13.521      	                	;
 4               	173.2       	5.882       	                	;
 5               	172.1       	4.876       	                	;
 6               	173.8       	10.238      	                	;
 7               	173.2       	14.777      	                	;
 8               	173         	18.861      	                	;
 9               	172.8       	13.83       	                	;
 10              	172.4       	8.324       	                	;
 11              	171.8       	12.582      	                	;
 12              	171.1       	8.917       	                	;
 13              	170.4       	6.485       	                	;
 14              	172.5       	3.277       	                	;
 15              	172.4       	3.697       	                	;
 16              	170.05      	7.918       	                	;
 17              	170.9       	10.215      	                	;
 18              	170.8       	4.577       	                	;
 19              	169.8       	22.337      	                	;
 20              	170.05      	5.316       	                	;
 21              	171.3       	5.958       	                	;
 22              	171.2       	2.868       	                	;
 23              	171.1       	1.757       	                	;
 24              	171.05      	12.796      	                	;
 25              	170.9       	13.332      	                	;
 26              	170.8       	13.936      	                	;
 27              	170.4       	9.549       	                	;

[RESERVOIRS]
;ID Noeud              	Charge Tot   	Courbe Modulation
 100             	226.12      	                	;

[TANKS]
;ID Noeud              	Altitude   	Niv Init   	Niv Min    	Niv Max    	Diamètre    	VolMin      	Courbe Vol

[PIPES]
;ID Arc              	Noeud1           	Noeud2           	Longueur      	Diamètre    	Rugosité   	PerSing   	État
 1               	100             	0               	507.97      	600         	100         	0           	Open  	;
 2               	0               	1               	192.79      	600         	100         	0           	Open  	;
 3               	1               	2               	815.08      	450         	100         	0           	Open  	;
 4               	1               	6               	434.58      	400         	100         	0           	Open  	;
 5               	2               	3               	922.78      	300         	100         	0           	Open  	;
 6               	2               	8               	385.12      	250         	100         	0           	Open  	;
 7               	3               	4               	284.49      	200         	100         	0           	Open  	;
 8               	3               	10              	359.61      	250         	100         	0           	Open  	;
 9               	4               	5               	397.18      	200         	100         	0           	Open  	;
 10              	5               	12              	167.85      	150         	100         	0           	Open  	;
 11              	6               	7               	407.43      	250         	100         	0           	Open  	;
 12              	6               	14              	344.43      	300         	100         	0           	Open  	;
 13              	7               	8               	550.2       	150         	100         	0           	Open  	;
 14              	7               	24              	754.8       	125         	100         	0           	Open  	;
 15              	8               	9               	488.28      	250         	100         	0           	Open  	;
 16              	8               	25              	762.03      	100         	100         	0           	Open  	;
 17              	9               	10              	293.08      	200         	100         	0           	Open  	;
 18              	9               	26              	821.36      	100         	100         	0           	Open  	;
 19              	10              	11              	311.87      	250         	100         	0           	Open  	;
 20              	11              	12              	429.48      	100         	100         	0           	Open  	;
 21              	11              	17              	716.64      	200         	100         	0           	Open  	;
 22              	12              	13              	435.97      	150         	100         	0           	Open  	;
 23              	13              	16              	315.48      	100         	100         	0           	Open  	;
 24              	14              	15              	35.34       	250         	100         	0           	Open  	;
 25              	15              	21              	393.25      	250         	100         	0           	Open  	;
 26              	16              	19              	272.81      	125         	100         	0           	Open  	;
 27              	17              	18              	201.2       	150         	100         	0           	Open  	;
 28              	17              	27              	265.96      	100         	100         	0           	Open  	;
 29              	18              	16              	392.25      	125         	100         	0           	Open  	;
 30              	20              	19              	345.65      	125         	100         	0           	Open  	;
 31              	21              	22              	297.3       	250         	100         	0           	Open  	;
 32              	22              	23              	35.09       	250         	100         	0           	Open  	;
 33              	23              	24              	168.53      	250         	100         	0           	Open  	;
 34              	24              	25              	559.56      	200         	100         	0           	Open  	;
 35              	25              	26              	223.34      	200         	100         	0           	Open  	;
 36              	26              	27              	570.3       	150         	100         	0           	Open  	;
 37              	27              	20              	270.33      	150         	100         	0           	Open  	;

[PUMPS]
;ID Arc              	NoeudAsp           	NoeudDéch           	Paramètres

[VALVES]
;ID Arc              	NoeudAmont           	NodeAval           	Diamètre    	Type	Consigne  	PertSing   

[TAGS]

[DEMANDS]
;ID Noeud        	Demande Base 	Courbe Modulation  	Catégorie

[STATUS]
;ID Arc              	État/Consigne

[PATTERNS]
;ID Modulation      	Multiplicateurs

[CURVES]
;ID Courbe        	Valeur X     	Valeur Y

[CONTROLS]

[RULES]

[ENERGY]
 Global Efficiency  	75
 Global Price       	0
 Demand Charge      	0

[EMITTERS]
;ID Noeud        	Coefficient

[QUALITY]
;ID Noeud            	Qualité Initiale

[SOURCES]
;ID Noeud            	Type        	Qualité     	Courbe Modul

[REACTIONS]
;Type     	Tuyau/Réservoir       	Coefficient


[REACTIONS]
 Order Bulk            	1
 Order Tank            	1
 Order Wall            	1
 Global Bulk           	0
 Global Wall           	0
 Limiting Potential    	0
 Roughness Correlation 	0

[MIXING]
;ID Réservoir      	Modèle        	Fraction Mélange

[TIMES]
 Duration           	0
 Hydraulic Timestep 	1:00
 Quality Timestep   	0:05
 Pattern Timestep   	1:00
 Pattern Start      	0:00
 Report Timestep    	1:00
 Report Start       	0:00
 Start ClockTime    	12 am
 Statistic          	None

[REPORT]
 Status             	Yes
 Summary            	No
 Page               	0

[OPTIONS]
 Units              	LPS
 Headloss           	H-W
 Specific Gravity   	1
 Viscosity          	1
 Trials             	40
 Accuracy           	0.001
 Unbalanced         	Continue 10
 Pattern            	1
 Demand Multiplier  	1.0
 Emitter Exponent   	0.5
 Quality            	None mg/l
 Diffusivity        	1
 Tolerance          	0.01

[COORDINATES]
;ID Noeud            	Coord X         	Coord Y
 0               	491.12          	1834.668        
 1               	465.054         	1643.65         
 2               	1280.13         	1639.617        
 3               	2202.89         	1621.41         
 4               	2487.17         	1615.622        
 5               	2859.35         	1476.91         
 6               	328.68          	1231.013        
 7               	736.122         	1230.5          
 8               	1285.81         	1254.534        
 9               	1773.63         	1275.87         
 10              	2066.34         	1288.67         
 11              	2378.01         	1302.27         
 12              	2807.24         	1317.36         
 13              	2672.34         	902.78          
 14              	221.134         	903.8           
 15              	253.51          	889.62          
 16              	2673.34         	587.29          
 17              	2147.38         	623.78          
 18              	2342.23         	577.67          
 19              	2670.93         	314.48          
 20              	2325.28         	311.59          
 21              	249.62          	496.54          
 22              	546.83          	504.31          
 23              	554.89          	470.16          
 24              	735.17          	475.69          
 25              	1282.65         	492.51          
 26              	1505.89         	499.36          
 27              	2061.78         	371.97          
 100             	0               	2000            

[VERTICES]
;ID Arc            	Coord X         	Coord Y

[LABELS]
;Coord X         	Coord Y         	Texte et Noeud d´Ancrage

[BACKDROP]
 DIMENSIONS     	-142.9675       	227.1695        	3002.3175       	2084.4205       
 UNITS          	None
 FILE           	
 OFFSET         	0               	0               

[END]
